OPT_V10/Two_days_first_run/powerflow_results_t11.txt
Pandapower Network Debug Info
==================================================

BUS:
       vm_pu  va_degree      p_mw    q_mvar
0   0.998815   0.362957 -0.001931  0.001115
1   0.998012   0.602029 -0.001820  0.001662
2   0.996330   0.807871 -0.000767  0.003351
3   0.997428   0.509789 -0.000569  0.003380
4   0.995065   0.381511  0.000030  0.004220
5   0.997259   0.346132 -0.000041  0.005436
6   0.998038   0.456289 -0.001622  0.000933
7   0.999860   0.122952 -0.001495  0.001896
8   0.999139   0.087224 -0.001555  0.002990
9   0.999873   0.002524  0.007078  0.008492
10  0.999878   0.002465  0.006527  0.010494
11  0.999892   0.002230  0.008904  0.009011
12  0.999846   0.004369  0.007893  0.005238
13  0.999824   0.004751  0.008165  0.009061
14  0.999831   0.004676  0.009282  0.013757
15  0.999953   0.001402  0.000000  0.000000
16  0.999953   0.001408  0.000000  0.000000
17  0.999851   0.004387  0.000000  0.000000
18  0.999851   0.004396  0.000000  0.000000
19  1.000000   0.000000 -0.017539 -0.042581
20  1.000000   0.000006  0.000000  0.000000
21  1.000000   0.000000 -0.020756 -0.048592
22  1.000000   0.000007  0.000000  0.000000
--------------------------------------------------

LINE:
    p_from_mw  q_from_mvar   p_to_mw  q_to_mvar         pl_mw       ql_mvar  i_from_ka   i_to_ka      i_ka  vm_from_pu  va_from_degree  vm_to_pu  va_to_degree  loading_percent
0    0.017529     0.038581 -0.017527  -0.038579  1.756462e-06  1.369543e-06   0.001631  0.001631  0.001631    1.000000        0.000006  0.999953      0.001402         0.709154
1    0.020746     0.044592 -0.020740  -0.044587  6.506446e-06  5.073183e-06   0.001893  0.001893  0.001893    1.000000        0.000007  0.999851      0.004387         0.823051
2    0.022511     0.027999 -0.022509  -0.027997  1.785537e-06  1.392212e-06   0.001383  0.001383  0.001383    0.999953        0.001402  0.999892      0.002230         0.601240
3    0.007893     0.005238 -0.007893  -0.005238  3.104136e-08  2.420346e-08   0.000365  0.000365  0.000365    0.999851        0.004387  0.999846      0.004369         0.158549
4    0.017448     0.022818 -0.017447  -0.022818  4.512880e-07  3.518767e-07   0.001106  0.001106  0.001106    0.999851        0.004387  0.999831      0.004676         0.480768
5   -0.004994     0.009581  0.005049  -0.009538  5.460324e-05  4.257505e-05   0.015595  0.015595  0.015595    0.999953        0.001408  0.998815      0.362957         6.780591
6   -0.001626     0.006398  0.001660  -0.006372  3.381816e-05  2.636858e-05   0.009530  0.009530  0.009530    0.999851        0.004396  0.997259      0.346132         4.143304
7   -0.001491     0.001899  0.001495  -0.001896  3.940203e-06  3.072241e-06   0.003486  0.003486  0.003486    0.999851        0.004396  0.999860      0.122952         1.515527
8   -0.001494     0.007235  0.001503  -0.007227  9.385427e-06  7.317972e-06   0.010664  0.010664  0.010664    0.999851        0.004396  0.999139      0.087224         4.636532
9    0.007078     0.008492 -0.007078  -0.008492  4.227342e-08  3.296128e-08   0.000426  0.000426  0.000426    0.999878        0.002465  0.999873      0.002524         0.185024
10   0.013605     0.018986 -0.013605  -0.018986  2.668747e-07  2.080866e-07   0.000899  0.000899  0.000899    0.999892        0.002230  0.999878      0.002465         0.390922
11   0.008165     0.009061 -0.008165  -0.009061  7.277939e-08  5.674729e-08   0.000470  0.000470  0.000470    0.999831        0.004676  0.999824      0.004751         0.204146
12   0.002576    -0.005022 -0.002557   0.005037  1.892126e-05  1.475322e-05   0.008163  0.008163  0.008163    0.998012        0.602029  0.998815      0.362957         3.548979
13   0.000569    -0.003380 -0.000561   0.003387  7.886126e-06  6.148942e-06   0.004961  0.004961  0.004961    0.997428        0.509789  0.998815      0.362957         2.156740
14   0.000767    -0.003351 -0.000756   0.003359  1.076923e-05  8.396946e-06   0.004980  0.004980  0.004980    0.996330        0.807871  0.998012      0.602029         2.165295
15   0.000052     0.004237 -0.000030  -0.004220  2.188666e-05  1.706539e-05   0.006122  0.006122  0.006122    0.999139        0.087224  0.995065      0.381511         2.661583
16   0.001622    -0.000933 -0.001619   0.000935  3.061069e-06  2.386766e-06   0.002706  0.002706  0.002706    0.998038        0.456289  0.997259      0.346132         1.176720
--------------------------------------------------

TRAFO:
    p_hv_mw  q_hv_mvar   p_lv_mw  q_lv_mvar    pl_mw  ql_mvar   i_hv_ka   i_lv_ka  vm_hv_pu  va_hv_degree  vm_lv_pu  va_lv_degree  loading_percent
0 -0.004984   0.010581  0.004994  -0.009581  0.00001    0.001  0.000450  0.015595  0.999953      0.001402  0.999953      0.001408         0.116963
1 -0.004601   0.016531  0.004611  -0.015532  0.00001    0.001  0.000661  0.023388  0.999851      0.004387  0.999851      0.004396         0.171621
2  0.017539   0.042581 -0.017529  -0.038581  0.00001    0.004  0.000380  0.001631  1.000000      0.000000  1.000000      0.000006         0.115128
3  0.020756   0.048592 -0.020746  -0.044592  0.00001    0.004  0.000436  0.001893  1.000000      0.000000  1.000000      0.000007         0.132099
--------------------------------------------------
